<routes>

        <vType id="typeWE" accel="0.8" decel="4.5" sigma="0.5" length="5" minGap="2.5" maxSpeed="19.444" guiShape="passenger"/>

        <vType id="typeNS" accel="0.8" decel="4.5" sigma="0.5" length="7" minGap="3" maxSpeed="25" guiShape="bus"/>



        <route id="WE" edges="51o 1i 2o 52i" />
        <route id="WEN" edges="51o 1i 4o 54i" />
        <route id="WES" edges="51o 1i 3o 53i"/>
        
        <route id="EW" edges="52o 2i 1o 51i" />
        <route id="EWS" edges="52o 2i 3o 53i" />
        
        <route id="NS" edges="54o 4i 3o 53i" />
        <route id="NSE" edges="54o 4i 2o 52i" />
        
        <route id="SN" edges="53o 3i 4o 54i" />
        <route id="SNW" edges="53o 3i 1o 51i" />
    <vehicle id="EW_0" type="typeWE" route="EW" depart="0" departLane="random"/>
    <vehicle id="SN_1" type="typeWE" route="SN" depart="0" departLane="random" color="1,0,0"/>
    <vehicle id="WE_2" type="typeWE" route="WE" depart="1" departLane="random"/>
    <vehicle id="EWS_3" type="typeWE" route="EWS" depart="1" departLane="random"/>
    <vehicle id="WE_4" type="typeWE" route="WE" depart="2" departLane="random"/>
    <vehicle id="SNW_5" type="typeWE" route="SNW" depart="2" departLane="random" color="1,0,0"/>
    <vehicle id="EW_6" type="typeWE" route="EW" depart="3" departLane="random"/>
    <vehicle id="NS_7" type="typeWE" route="NS" depart="3" departLane="random" color="1,0,0"/>
    <vehicle id="EW_8" type="typeWE" route="EW" depart="4" departLane="random"/>
    <vehicle id="EW_9" type="typeWE" route="EW" depart="6" departLane="random"/>
    <vehicle id="EW_10" type="typeWE" route="EW" depart="7" departLane="random"/>
    <vehicle id="EWS_11" type="typeWE" route="EWS" depart="9" departLane="random"/>
    <vehicle id="NS_12" type="typeWE" route="NS" depart="10" departLane="random" color="1,0,0"/>
    <vehicle id="EW_13" type="typeWE" route="EW" depart="11" departLane="random"/>
    <vehicle id="NSE_14" type="typeWE" route="NSE" depart="11" departLane="random" color="1,0,0"/>
    <vehicle id="SN_15" type="typeWE" route="SN" depart="11" departLane="random" color="1,0,0"/>
    <vehicle id="EW_16" type="typeWE" route="EW" depart="15" departLane="random"/>
    <vehicle id="WEN_17" type="typeWE" route="WEN" depart="16" departLane="random"/>
    <vehicle id="EW_18" type="typeWE" route="EW" depart="18" departLane="random"/>
    <vehicle id="NS_19" type="typeWE" route="NS" depart="18" departLane="random" color="1,0,0"/>
    <vehicle id="NS_20" type="typeWE" route="NS" depart="20" departLane="random" color="1,0,0"/>
    <vehicle id="EWS_21" type="typeWE" route="EWS" depart="21" departLane="random"/>
    <vehicle id="NSE_22" type="typeWE" route="NSE" depart="21" departLane="random" color="1,0,0"/>
    <vehicle id="WE_23" type="typeWE" route="WE" depart="22" departLane="random"/>
    <vehicle id="EW_24" type="typeWE" route="EW" depart="22" departLane="random"/>
    <vehicle id="SN_25" type="typeWE" route="SN" depart="22" departLane="random" color="1,0,0"/>
    <vehicle id="WE_26" type="typeWE" route="WE" depart="23" departLane="random"/>
    <vehicle id="WE_27" type="typeWE" route="WE" depart="24" departLane="random"/>
    <vehicle id="NSE_28" type="typeWE" route="NSE" depart="26" departLane="random" color="1,0,0"/>
    <vehicle id="SN_29" type="typeWE" route="SN" depart="31" departLane="random" color="1,0,0"/>
    <vehicle id="WE_30" type="typeWE" route="WE" depart="32" departLane="random"/>
    <vehicle id="WE_31" type="typeWE" route="WE" depart="33" departLane="random"/>
    <vehicle id="EW_32" type="typeWE" route="EW" depart="34" departLane="random"/>
    <vehicle id="WE_33" type="typeWE" route="WE" depart="35" departLane="random"/>
    <vehicle id="WEN_34" type="typeWE" route="WEN" depart="38" departLane="random"/>
    <vehicle id="WE_35" type="typeWE" route="WE" depart="39" departLane="random"/>
    <vehicle id="NS_36" type="typeWE" route="NS" depart="39" departLane="random" color="1,0,0"/>
    <vehicle id="NSE_37" type="typeWE" route="NSE" depart="39" departLane="random" color="1,0,0"/>
    <vehicle id="SN_38" type="typeWE" route="SN" depart="39" departLane="random" color="1,0,0"/>
    <vehicle id="SNW_39" type="typeWE" route="SNW" depart="39" departLane="random" color="1,0,0"/>
    <vehicle id="WE_40" type="typeWE" route="WE" depart="41" departLane="random"/>
    <vehicle id="WEN_41" type="typeWE" route="WEN" depart="41" departLane="random"/>
    <vehicle id="SN_42" type="typeWE" route="SN" depart="44" departLane="random" color="1,0,0"/>
    <vehicle id="WE_43" type="typeWE" route="WE" depart="47" departLane="random"/>
    <vehicle id="NSE_44" type="typeWE" route="NSE" depart="49" departLane="random" color="1,0,0"/>
    <vehicle id="WE_45" type="typeWE" route="WE" depart="50" departLane="random"/>
    <vehicle id="SN_46" type="typeWE" route="SN" depart="50" departLane="random" color="1,0,0"/>
    <vehicle id="NS_47" type="typeWE" route="NS" depart="51" departLane="random" color="1,0,0"/>
    <vehicle id="WE_48" type="typeWE" route="WE" depart="53" departLane="random"/>
    <vehicle id="SNW_49" type="typeWE" route="SNW" depart="53" departLane="random" color="1,0,0"/>
    <vehicle id="EWS_50" type="typeWE" route="EWS" depart="58" departLane="random"/>
    <vehicle id="WE_51" type="typeWE" route="WE" depart="62" departLane="random"/>
    <vehicle id="EW_52" type="typeWE" route="EW" depart="62" departLane="random"/>
    <vehicle id="NS_53" type="typeWE" route="NS" depart="62" departLane="random" color="1,0,0"/>
    <vehicle id="NS_54" type="typeWE" route="NS" depart="63" departLane="random" color="1,0,0"/>
    <vehicle id="SN_55" type="typeWE" route="SN" depart="63" departLane="random" color="1,0,0"/>
    <vehicle id="EWS_56" type="typeWE" route="EWS" depart="64" departLane="random"/>
    <vehicle id="WE_57" type="typeWE" route="WE" depart="66" departLane="random"/>
    <vehicle id="EWS_58" type="typeWE" route="EWS" depart="66" departLane="random"/>
    <vehicle id="WE_59" type="typeWE" route="WE" depart="67" departLane="random"/>
    <vehicle id="EW_60" type="typeWE" route="EW" depart="67" departLane="random"/>
    <vehicle id="NS_61" type="typeWE" route="NS" depart="67" departLane="random" color="1,0,0"/>
    <vehicle id="SNW_62" type="typeWE" route="SNW" depart="67" departLane="random" color="1,0,0"/>
    <vehicle id="WE_63" type="typeWE" route="WE" depart="70" departLane="random"/>
    <vehicle id="EW_64" type="typeWE" route="EW" depart="71" departLane="random"/>
    <vehicle id="EW_65" type="typeWE" route="EW" depart="74" departLane="random"/>
    <vehicle id="WE_66" type="typeWE" route="WE" depart="75" departLane="random"/>
    <vehicle id="EW_67" type="typeWE" route="EW" depart="78" departLane="random"/>
    <vehicle id="WEN_68" type="typeWE" route="WEN" depart="79" departLane="random"/>
    <vehicle id="SN_69" type="typeWE" route="SN" depart="80" departLane="random" color="1,0,0"/>
    <vehicle id="WE_70" type="typeWE" route="WE" depart="81" departLane="random"/>
    <vehicle id="SN_71" type="typeWE" route="SN" depart="82" departLane="random" color="1,0,0"/>
    <vehicle id="NS_72" type="typeWE" route="NS" depart="83" departLane="random" color="1,0,0"/>
    <vehicle id="WEN_73" type="typeWE" route="WEN" depart="84" departLane="random"/>
    <vehicle id="EW_74" type="typeWE" route="EW" depart="88" departLane="random"/>
    <vehicle id="EWS_75" type="typeWE" route="EWS" depart="88" departLane="random"/>
    <vehicle id="NS_76" type="typeWE" route="NS" depart="88" departLane="random" color="1,0,0"/>
    <vehicle id="EWS_77" type="typeWE" route="EWS" depart="89" departLane="random"/>
    <vehicle id="EW_78" type="typeWE" route="EW" depart="90" departLane="random"/>
    <vehicle id="NS_79" type="typeWE" route="NS" depart="95" departLane="random" color="1,0,0"/>
    <vehicle id="SN_80" type="typeWE" route="SN" depart="97" departLane="random" color="1,0,0"/>
    <vehicle id="WE_81" type="typeWE" route="WE" depart="99" departLane="random"/>
    <vehicle id="NSE_82" type="typeWE" route="NSE" depart="99" departLane="random" color="1,0,0"/>
    <vehicle id="EW_83" type="typeWE" route="EW" depart="100" departLane="random"/>
    <vehicle id="NSE_84" type="typeWE" route="NSE" depart="100" departLane="random" color="1,0,0"/>
    <vehicle id="SNW_85" type="typeWE" route="SNW" depart="101" departLane="random" color="1,0,0"/>
    <vehicle id="WE_86" type="typeWE" route="WE" depart="105" departLane="random"/>
    <vehicle id="EW_87" type="typeWE" route="EW" depart="105" departLane="random"/>
    <vehicle id="EW_88" type="typeWE" route="EW" depart="108" departLane="random"/>
    <vehicle id="WE_89" type="typeWE" route="WE" depart="110" departLane="random"/>
    <vehicle id="WE_90" type="typeWE" route="WE" depart="111" departLane="random"/>
    <vehicle id="WEN_91" type="typeWE" route="WEN" depart="111" departLane="random"/>
    <vehicle id="EW_92" type="typeWE" route="EW" depart="111" departLane="random"/>
    <vehicle id="WEN_93" type="typeWE" route="WEN" depart="112" departLane="random"/>
    <vehicle id="EW_94" type="typeWE" route="EW" depart="112" departLane="random"/>
    <vehicle id="WE_95" type="typeWE" route="WE" depart="114" departLane="random"/>
    <vehicle id="EW_96" type="typeWE" route="EW" depart="114" departLane="random"/>
    <vehicle id="EW_97" type="typeWE" route="EW" depart="117" departLane="random"/>
    <vehicle id="NS_98" type="typeWE" route="NS" depart="117" departLane="random" color="1,0,0"/>
    <vehicle id="WEN_99" type="typeWE" route="WEN" depart="118" departLane="random"/>
    <vehicle id="WEN_100" type="typeWE" route="WEN" depart="120" departLane="random"/>
    <vehicle id="WE_101" type="typeWE" route="WE" depart="121" departLane="random"/>
    <vehicle id="EW_102" type="typeWE" route="EW" depart="124" departLane="random"/>
    <vehicle id="EW_103" type="typeWE" route="EW" depart="125" departLane="random"/>
    <vehicle id="EW_104" type="typeWE" route="EW" depart="126" departLane="random"/>
    <vehicle id="EWS_105" type="typeWE" route="EWS" depart="126" departLane="random"/>
    <vehicle id="EW_106" type="typeWE" route="EW" depart="127" departLane="random"/>
    <vehicle id="SNW_107" type="typeWE" route="SNW" depart="129" departLane="random" color="1,0,0"/>
    <vehicle id="EW_108" type="typeWE" route="EW" depart="132" departLane="random"/>
    <vehicle id="SN_109" type="typeWE" route="SN" depart="135" departLane="random" color="1,0,0"/>
    <vehicle id="NS_110" type="typeWE" route="NS" depart="136" departLane="random" color="1,0,0"/>
    <vehicle id="NS_111" type="typeWE" route="NS" depart="137" departLane="random" color="1,0,0"/>
    <vehicle id="WE_112" type="typeWE" route="WE" depart="139" departLane="random"/>
    <vehicle id="EW_113" type="typeWE" route="EW" depart="139" departLane="random"/>
    <vehicle id="NS_114" type="typeWE" route="NS" depart="139" departLane="random" color="1,0,0"/>
    <vehicle id="EW_115" type="typeWE" route="EW" depart="140" departLane="random"/>
    <vehicle id="SN_116" type="typeWE" route="SN" depart="140" departLane="random" color="1,0,0"/>
    <vehicle id="EWS_117" type="typeWE" route="EWS" depart="142" departLane="random"/>
    <vehicle id="NS_118" type="typeWE" route="NS" depart="142" departLane="random" color="1,0,0"/>
    <vehicle id="SN_119" type="typeWE" route="SN" depart="142" departLane="random" color="1,0,0"/>
    <vehicle id="WE_120" type="typeWE" route="WE" depart="144" departLane="random"/>
    <vehicle id="EW_121" type="typeWE" route="EW" depart="144" departLane="random"/>
    <vehicle id="WE_122" type="typeWE" route="WE" depart="146" departLane="random"/>
    <vehicle id="NS_123" type="typeWE" route="NS" depart="146" departLane="random" color="1,0,0"/>
    <vehicle id="SNW_124" type="typeWE" route="SNW" depart="146" departLane="random" color="1,0,0"/>
    <vehicle id="WE_125" type="typeWE" route="WE" depart="147" departLane="random"/>
    <vehicle id="WE_126" type="typeWE" route="WE" depart="149" departLane="random"/>
    <vehicle id="EW_127" type="typeWE" route="EW" depart="152" departLane="random"/>
    <vehicle id="SN_128" type="typeWE" route="SN" depart="152" departLane="random" color="1,0,0"/>
    <vehicle id="WE_129" type="typeWE" route="WE" depart="153" departLane="random"/>
    <vehicle id="EW_130" type="typeWE" route="EW" depart="159" departLane="random"/>
    <vehicle id="NS_131" type="typeWE" route="NS" depart="160" departLane="random" color="1,0,0"/>
    <vehicle id="EW_132" type="typeWE" route="EW" depart="161" departLane="random"/>
    <vehicle id="SN_133" type="typeWE" route="SN" depart="161" departLane="random" color="1,0,0"/>
    <vehicle id="NS_134" type="typeWE" route="NS" depart="162" departLane="random" color="1,0,0"/>
    <vehicle id="SN_135" type="typeWE" route="SN" depart="162" departLane="random" color="1,0,0"/>
    <vehicle id="EW_136" type="typeWE" route="EW" depart="163" departLane="random"/>
    <vehicle id="WE_137" type="typeWE" route="WE" depart="164" departLane="random"/>
    <vehicle id="WE_138" type="typeWE" route="WE" depart="165" departLane="random"/>
    <vehicle id="EW_139" type="typeWE" route="EW" depart="165" departLane="random"/>
    <vehicle id="WE_140" type="typeWE" route="WE" depart="167" departLane="random"/>
    <vehicle id="WE_141" type="typeWE" route="WE" depart="168" departLane="random"/>
    <vehicle id="EW_142" type="typeWE" route="EW" depart="168" departLane="random"/>
    <vehicle id="EW_143" type="typeWE" route="EW" depart="169" departLane="random"/>
    <vehicle id="WE_144" type="typeWE" route="WE" depart="171" departLane="random"/>
    <vehicle id="SNW_145" type="typeWE" route="SNW" depart="171" departLane="random" color="1,0,0"/>
    <vehicle id="WE_146" type="typeWE" route="WE" depart="175" departLane="random"/>
    <vehicle id="EWS_147" type="typeWE" route="EWS" depart="177" departLane="random"/>
    <vehicle id="WE_148" type="typeWE" route="WE" depart="178" departLane="random"/>
    <vehicle id="EW_149" type="typeWE" route="EW" depart="179" departLane="random"/>
    <vehicle id="WE_150" type="typeWE" route="WE" depart="181" departLane="random"/>
    <vehicle id="WEN_151" type="typeWE" route="WEN" depart="182" departLane="random"/>
    <vehicle id="SN_152" type="typeWE" route="SN" depart="183" departLane="random" color="1,0,0"/>
    <vehicle id="SN_153" type="typeWE" route="SN" depart="186" departLane="random" color="1,0,0"/>
    <vehicle id="WE_154" type="typeWE" route="WE" depart="187" departLane="random"/>
    <vehicle id="EW_155" type="typeWE" route="EW" depart="191" departLane="random"/>
    <vehicle id="NS_156" type="typeWE" route="NS" depart="191" departLane="random" color="1,0,0"/>
    <vehicle id="WE_157" type="typeWE" route="WE" depart="192" departLane="random"/>
    <vehicle id="WE_158" type="typeWE" route="WE" depart="195" departLane="random"/>
    <vehicle id="NS_159" type="typeWE" route="NS" depart="195" departLane="random" color="1,0,0"/>
    <vehicle id="SNW_160" type="typeWE" route="SNW" depart="200" departLane="random" color="1,0,0"/>
    <vehicle id="WEN_161" type="typeWE" route="WEN" depart="201" departLane="random"/>
    <vehicle id="WE_162" type="typeWE" route="WE" depart="202" departLane="random"/>
    <vehicle id="NS_163" type="typeWE" route="NS" depart="205" departLane="random" color="1,0,0"/>
    <vehicle id="WE_164" type="typeWE" route="WE" depart="206" departLane="random"/>
    <vehicle id="SN_165" type="typeWE" route="SN" depart="206" departLane="random" color="1,0,0"/>
    <vehicle id="WE_166" type="typeWE" route="WE" depart="207" departLane="random"/>
    <vehicle id="SN_167" type="typeWE" route="SN" depart="208" departLane="random" color="1,0,0"/>
    <vehicle id="EW_168" type="typeWE" route="EW" depart="209" departLane="random"/>
    <vehicle id="EW_169" type="typeWE" route="EW" depart="218" departLane="random"/>
    <vehicle id="WE_170" type="typeWE" route="WE" depart="219" departLane="random"/>
    <vehicle id="NS_171" type="typeWE" route="NS" depart="220" departLane="random" color="1,0,0"/>
    <vehicle id="NS_172" type="typeWE" route="NS" depart="223" departLane="random" color="1,0,0"/>
    <vehicle id="WE_173" type="typeWE" route="WE" depart="225" departLane="random"/>
    <vehicle id="EW_174" type="typeWE" route="EW" depart="225" departLane="random"/>
    <vehicle id="NS_175" type="typeWE" route="NS" depart="225" departLane="random" color="1,0,0"/>
    <vehicle id="EW_176" type="typeWE" route="EW" depart="226" departLane="random"/>
    <vehicle id="EW_177" type="typeWE" route="EW" depart="228" departLane="random"/>
    <vehicle id="WE_178" type="typeWE" route="WE" depart="230" departLane="random"/>
    <vehicle id="WE_179" type="typeWE" route="WE" depart="232" departLane="random"/>
    <vehicle id="WE_180" type="typeWE" route="WE" depart="233" departLane="random"/>
    <vehicle id="SNW_181" type="typeWE" route="SNW" depart="233" departLane="random" color="1,0,0"/>
    <vehicle id="NS_182" type="typeWE" route="NS" depart="234" departLane="random" color="1,0,0"/>
    <vehicle id="WE_183" type="typeWE" route="WE" depart="236" departLane="random"/>
    <vehicle id="WE_184" type="typeWE" route="WE" depart="237" departLane="random"/>
    <vehicle id="EWS_185" type="typeWE" route="EWS" depart="238" departLane="random"/>
    <vehicle id="NSE_186" type="typeWE" route="NSE" depart="238" departLane="random" color="1,0,0"/>
    <vehicle id="NS_187" type="typeWE" route="NS" depart="239" departLane="random" color="1,0,0"/>
    <vehicle id="SNW_188" type="typeWE" route="SNW" depart="240" departLane="random" color="1,0,0"/>
    <vehicle id="WE_189" type="typeWE" route="WE" depart="241" departLane="random"/>
    <vehicle id="WEN_190" type="typeWE" route="WEN" depart="241" departLane="random"/>
    <vehicle id="WE_191" type="typeWE" route="WE" depart="242" departLane="random"/>
    <vehicle id="SN_192" type="typeWE" route="SN" depart="242" departLane="random" color="1,0,0"/>
    <vehicle id="WE_193" type="typeWE" route="WE" depart="243" departLane="random"/>
    <vehicle id="SN_194" type="typeWE" route="SN" depart="243" departLane="random" color="1,0,0"/>
    <vehicle id="EWS_195" type="typeWE" route="EWS" depart="245" departLane="random"/>
    <vehicle id="SNW_196" type="typeWE" route="SNW" depart="247" departLane="random" color="1,0,0"/>
    <vehicle id="WE_197" type="typeWE" route="WE" depart="248" departLane="random"/>
    <vehicle id="EW_198" type="typeWE" route="EW" depart="248" departLane="random"/>
    <vehicle id="SN_199" type="typeWE" route="SN" depart="251" departLane="random" color="1,0,0"/>
    <vehicle id="WE_200" type="typeWE" route="WE" depart="252" departLane="random"/>
    <vehicle id="SN_201" type="typeWE" route="SN" depart="252" departLane="random" color="1,0,0"/>
    <vehicle id="SNW_202" type="typeWE" route="SNW" depart="253" departLane="random" color="1,0,0"/>
    <vehicle id="SNW_203" type="typeWE" route="SNW" depart="254" departLane="random" color="1,0,0"/>
    <vehicle id="EW_204" type="typeWE" route="EW" depart="255" departLane="random"/>
    <vehicle id="WE_205" type="typeWE" route="WE" depart="257" departLane="random"/>
    <vehicle id="SN_206" type="typeWE" route="SN" depart="257" departLane="random" color="1,0,0"/>
    <vehicle id="SNW_207" type="typeWE" route="SNW" depart="257" departLane="random" color="1,0,0"/>
    <vehicle id="WE_208" type="typeWE" route="WE" depart="259" departLane="random"/>
    <vehicle id="SN_209" type="typeWE" route="SN" depart="260" departLane="random" color="1,0,0"/>
    <vehicle id="NSE_210" type="typeWE" route="NSE" depart="263" departLane="random" color="1,0,0"/>
    <vehicle id="WE_211" type="typeWE" route="WE" depart="264" departLane="random"/>
    <vehicle id="NS_212" type="typeWE" route="NS" depart="264" departLane="random" color="1,0,0"/>
    <vehicle id="EW_213" type="typeWE" route="EW" depart="266" departLane="random"/>
    <vehicle id="SN_214" type="typeWE" route="SN" depart="266" departLane="random" color="1,0,0"/>
    <vehicle id="WEN_215" type="typeWE" route="WEN" depart="268" departLane="random"/>
    <vehicle id="WE_216" type="typeWE" route="WE" depart="269" departLane="random"/>
    <vehicle id="EW_217" type="typeWE" route="EW" depart="269" departLane="random"/>
    <vehicle id="EWS_218" type="typeWE" route="EWS" depart="270" departLane="random"/>
    <vehicle id="WE_219" type="typeWE" route="WE" depart="271" departLane="random"/>
    <vehicle id="EW_220" type="typeWE" route="EW" depart="271" departLane="random"/>
    <vehicle id="SNW_221" type="typeWE" route="SNW" depart="272" departLane="random" color="1,0,0"/>
    <vehicle id="WE_222" type="typeWE" route="WE" depart="273" departLane="random"/>
    <vehicle id="SNW_223" type="typeWE" route="SNW" depart="275" departLane="random" color="1,0,0"/>
    <vehicle id="WE_224" type="typeWE" route="WE" depart="278" departLane="random"/>
    <vehicle id="EW_225" type="typeWE" route="EW" depart="280" departLane="random"/>
    <vehicle id="WE_226" type="typeWE" route="WE" depart="281" departLane="random"/>
    <vehicle id="WE_227" type="typeWE" route="WE" depart="282" departLane="random"/>
    <vehicle id="EW_228" type="typeWE" route="EW" depart="282" departLane="random"/>
    <vehicle id="NSE_229" type="typeWE" route="NSE" depart="282" departLane="random" color="1,0,0"/>
    <vehicle id="SNW_230" type="typeWE" route="SNW" depart="283" departLane="random" color="1,0,0"/>
    <vehicle id="WE_231" type="typeWE" route="WE" depart="284" departLane="random"/>
    <vehicle id="NSE_232" type="typeWE" route="NSE" depart="284" departLane="random" color="1,0,0"/>
    <vehicle id="NS_233" type="typeWE" route="NS" depart="287" departLane="random" color="1,0,0"/>
    <vehicle id="NSE_234" type="typeWE" route="NSE" depart="287" departLane="random" color="1,0,0"/>
    <vehicle id="EW_235" type="typeWE" route="EW" depart="291" departLane="random"/>
    <vehicle id="NSE_236" type="typeWE" route="NSE" depart="291" departLane="random" color="1,0,0"/>
    <vehicle id="WE_237" type="typeWE" route="WE" depart="294" departLane="random"/>
    <vehicle id="WEN_238" type="typeWE" route="WEN" depart="294" departLane="random"/>
    <vehicle id="NSE_239" type="typeWE" route="NSE" depart="296" departLane="random" color="1,0,0"/>
    <vehicle id="NSE_240" type="typeWE" route="NSE" depart="297" departLane="random" color="1,0,0"/>
    <vehicle id="SN_241" type="typeWE" route="SN" depart="297" departLane="random" color="1,0,0"/>
    <vehicle id="WE_242" type="typeWE" route="WE" depart="300" departLane="random"/>
    <vehicle id="NSE_243" type="typeWE" route="NSE" depart="301" departLane="random" color="1,0,0"/>
    <vehicle id="EW_244" type="typeWE" route="EW" depart="302" departLane="random"/>
    <vehicle id="WEN_245" type="typeWE" route="WEN" depart="305" departLane="random"/>
    <vehicle id="NS_246" type="typeWE" route="NS" depart="305" departLane="random" color="1,0,0"/>
    <vehicle id="WE_247" type="typeWE" route="WE" depart="308" departLane="random"/>
    <vehicle id="WE_248" type="typeWE" route="WE" depart="309" departLane="random"/>
    <vehicle id="EW_249" type="typeWE" route="EW" depart="309" departLane="random"/>
    <vehicle id="EWS_250" type="typeWE" route="EWS" depart="310" departLane="random"/>
    <vehicle id="NSE_251" type="typeWE" route="NSE" depart="310" departLane="random" color="1,0,0"/>
    <vehicle id="SN_252" type="typeWE" route="SN" depart="310" departLane="random" color="1,0,0"/>
    <vehicle id="EWS_253" type="typeWE" route="EWS" depart="311" departLane="random"/>
    <vehicle id="NS_254" type="typeWE" route="NS" depart="311" departLane="random" color="1,0,0"/>
    <vehicle id="WE_255" type="typeWE" route="WE" depart="313" departLane="random"/>
    <vehicle id="EWS_256" type="typeWE" route="EWS" depart="314" departLane="random"/>
    <vehicle id="WEN_257" type="typeWE" route="WEN" depart="315" departLane="random"/>
    <vehicle id="EW_258" type="typeWE" route="EW" depart="315" departLane="random"/>
    <vehicle id="WE_259" type="typeWE" route="WE" depart="316" departLane="random"/>
    <vehicle id="SN_260" type="typeWE" route="SN" depart="321" departLane="random" color="1,0,0"/>
    <vehicle id="WE_261" type="typeWE" route="WE" depart="324" departLane="random"/>
    <vehicle id="WE_262" type="typeWE" route="WE" depart="325" departLane="random"/>
    <vehicle id="SN_263" type="typeWE" route="SN" depart="325" departLane="random" color="1,0,0"/>
    <vehicle id="EWS_264" type="typeWE" route="EWS" depart="326" departLane="random"/>
    <vehicle id="NS_265" type="typeWE" route="NS" depart="327" departLane="random" color="1,0,0"/>
    <vehicle id="EW_266" type="typeWE" route="EW" depart="328" departLane="random"/>
    <vehicle id="WE_267" type="typeWE" route="WE" depart="331" departLane="random"/>
    <vehicle id="SNW_268" type="typeWE" route="SNW" depart="331" departLane="random" color="1,0,0"/>
    <vehicle id="EWS_269" type="typeWE" route="EWS" depart="333" departLane="random"/>
    <vehicle id="NS_270" type="typeWE" route="NS" depart="333" departLane="random" color="1,0,0"/>
    <vehicle id="SNW_271" type="typeWE" route="SNW" depart="333" departLane="random" color="1,0,0"/>
    <vehicle id="WE_272" type="typeWE" route="WE" depart="334" departLane="random"/>
    <vehicle id="WE_273" type="typeWE" route="WE" depart="336" departLane="random"/>
    <vehicle id="NS_274" type="typeWE" route="NS" depart="337" departLane="random" color="1,0,0"/>
    <vehicle id="EW_275" type="typeWE" route="EW" depart="339" departLane="random"/>
    <vehicle id="EW_276" type="typeWE" route="EW" depart="341" departLane="random"/>
    <vehicle id="EWS_277" type="typeWE" route="EWS" depart="342" departLane="random"/>
    <vehicle id="WE_278" type="typeWE" route="WE" depart="344" departLane="random"/>
    <vehicle id="NSE_279" type="typeWE" route="NSE" depart="346" departLane="random" color="1,0,0"/>
    <vehicle id="WE_280" type="typeWE" route="WE" depart="347" departLane="random"/>
    <vehicle id="WE_281" type="typeWE" route="WE" depart="348" departLane="random"/>
    <vehicle id="WE_282" type="typeWE" route="WE" depart="349" departLane="random"/>
    <vehicle id="EW_283" type="typeWE" route="EW" depart="349" departLane="random"/>
    <vehicle id="SN_284" type="typeWE" route="SN" depart="349" departLane="random" color="1,0,0"/>
    <vehicle id="WE_285" type="typeWE" route="WE" depart="350" departLane="random"/>
    <vehicle id="SNW_286" type="typeWE" route="SNW" depart="350" departLane="random" color="1,0,0"/>
    <vehicle id="WE_287" type="typeWE" route="WE" depart="351" departLane="random"/>
    <vehicle id="EW_288" type="typeWE" route="EW" depart="352" departLane="random"/>
    <vehicle id="SNW_289" type="typeWE" route="SNW" depart="352" departLane="random" color="1,0,0"/>
    <vehicle id="NS_290" type="typeWE" route="NS" depart="354" departLane="random" color="1,0,0"/>
    <vehicle id="SNW_291" type="typeWE" route="SNW" depart="355" departLane="random" color="1,0,0"/>
    <vehicle id="NS_292" type="typeWE" route="NS" depart="356" departLane="random" color="1,0,0"/>
    <vehicle id="EW_293" type="typeWE" route="EW" depart="357" departLane="random"/>
    <vehicle id="EW_294" type="typeWE" route="EW" depart="358" departLane="random"/>
    <vehicle id="EW_295" type="typeWE" route="EW" depart="361" departLane="random"/>
    <vehicle id="EWS_296" type="typeWE" route="EWS" depart="362" departLane="random"/>
    <vehicle id="EW_297" type="typeWE" route="EW" depart="363" departLane="random"/>
    <vehicle id="WE_298" type="typeWE" route="WE" depart="364" departLane="random"/>
    <vehicle id="EW_299" type="typeWE" route="EW" depart="367" departLane="random"/>
    <vehicle id="SN_300" type="typeWE" route="SN" depart="368" departLane="random" color="1,0,0"/>
    <vehicle id="WE_301" type="typeWE" route="WE" depart="375" departLane="random"/>
    <vehicle id="SN_302" type="typeWE" route="SN" depart="376" departLane="random" color="1,0,0"/>
    <vehicle id="WE_303" type="typeWE" route="WE" depart="377" departLane="random"/>
    <vehicle id="EW_304" type="typeWE" route="EW" depart="377" departLane="random"/>
    <vehicle id="WE_305" type="typeWE" route="WE" depart="378" departLane="random"/>
    <vehicle id="WE_306" type="typeWE" route="WE" depart="379" departLane="random"/>
    <vehicle id="EW_307" type="typeWE" route="EW" depart="379" departLane="random"/>
    <vehicle id="EWS_308" type="typeWE" route="EWS" depart="379" departLane="random"/>
    <vehicle id="NS_309" type="typeWE" route="NS" depart="381" departLane="random" color="1,0,0"/>
    <vehicle id="NSE_310" type="typeWE" route="NSE" depart="383" departLane="random" color="1,0,0"/>
    <vehicle id="WE_311" type="typeWE" route="WE" depart="385" departLane="random"/>
    <vehicle id="WE_312" type="typeWE" route="WE" depart="387" departLane="random"/>
    <vehicle id="NSE_313" type="typeWE" route="NSE" depart="387" departLane="random" color="1,0,0"/>
    <vehicle id="SNW_314" type="typeWE" route="SNW" depart="388" departLane="random" color="1,0,0"/>
    <vehicle id="WEN_315" type="typeWE" route="WEN" depart="390" departLane="random"/>
    <vehicle id="EW_316" type="typeWE" route="EW" depart="394" departLane="random"/>
    <vehicle id="EW_317" type="typeWE" route="EW" depart="395" departLane="random"/>
    <vehicle id="EWS_318" type="typeWE" route="EWS" depart="396" departLane="random"/>
    <vehicle id="SN_319" type="typeWE" route="SN" depart="398" departLane="random" color="1,0,0"/>
    <vehicle id="EWS_320" type="typeWE" route="EWS" depart="401" departLane="random"/>
    <vehicle id="EW_321" type="typeWE" route="EW" depart="402" departLane="random"/>
    <vehicle id="EW_322" type="typeWE" route="EW" depart="404" departLane="random"/>
    <vehicle id="EW_323" type="typeWE" route="EW" depart="405" departLane="random"/>
    <vehicle id="SNW_324" type="typeWE" route="SNW" depart="405" departLane="random" color="1,0,0"/>