<?xml version="1.0" encoding="UTF-8"?>
<types>
   <type id="a" priority="3" numLanes="4" speed="19.444"/>
   <type id="b" priority="3" numLanes="4" speed="13.889"/>
</types>
